Version 4
SHEET 1 1152 1072
WIRE 192 544 -176 544
WIRE 368 560 256 560
WIRE 592 560 368 560
WIRE 192 576 176 576
WIRE -464 656 -544 656
WIRE -256 656 -384 656
WIRE -176 656 -176 544
WIRE -176 656 -256 656
WIRE -48 656 -96 656
WIRE 16 656 -48 656
WIRE 176 656 176 576
WIRE 176 656 80 656
WIRE 368 656 368 560
WIRE 368 656 256 656
WIRE 400 656 368 656
WIRE 512 656 480 656
WIRE 592 656 512 656
WIRE -544 688 -544 656
WIRE 592 704 592 656
WIRE 176 736 176 656
WIRE 176 736 144 736
WIRE -48 752 -48 656
WIRE 80 752 -48 752
WIRE 512 768 512 656
WIRE 512 768 144 768
FLAG -176 544 Vin
FLAG 592 560 Vout
FLAG -544 768 0
FLAG 592 784 0
FLAG -256 720 0
SYMBOL OpAmps\\opamp 112 688 M0
SYMATTR InstName U1
SYMBOL res -80 640 R90
WINDOW 0 0 53 VBottom 2
WINDOW 3 38 55 VTop 2
SYMATTR InstName R1
SYMATTR Value {normR}
SYMBOL res 272 672 M270
WINDOW 0 32 56 VTop 2
WINDOW 3 -8 -2 VBottom 2
SYMATTR InstName R3
SYMATTR Value {normR}
SYMBOL cap -240 720 R180
WINDOW 0 24 56 Left 2
WINDOW 3 24 8 Left 2
SYMATTR InstName C1
SYMATTR Value {C}
SYMBOL voltage -544 672 R0
WINDOW 123 24 124 Left 2
WINDOW 39 0 0 Left 0
SYMATTR Value2 AC 1 0
SYMATTR InstName V1
SYMATTR Value 10
SYMBOL OpAmps\\opamp 224 624 M180
SYMATTR InstName U2
SYMBOL res 496 640 R90
WINDOW 0 0 56 VBottom 2
WINDOW 3 32 56 VTop 2
SYMATTR InstName R4
SYMATTR Value {normR*9}
SYMBOL res 608 800 R180
WINDOW 0 36 76 Left 2
WINDOW 3 36 40 Left 2
SYMATTR InstName R5
SYMATTR Value {normR}
SYMBOL res -368 640 R90
WINDOW 0 0 56 VBottom 2
WINDOW 3 32 56 VTop 2
SYMATTR InstName Rg
SYMATTR Value {Q/(wo*C)}
SYMBOL cap 80 640 R90
WINDOW 0 0 32 VBottom 2
WINDOW 3 32 32 VTop 2
SYMATTR InstName C2
SYMATTR Value {C}
TEXT -216 960 Left 2 !.param normR=4774 C=10n
TEXT -216 992 Left 2 !.ac dec 100 {fmin} {fmax}
TEXT -216 1024 Left 2 !.inc opamp.sub
TEXT -208 920 Left 2 !.param wo=2*pi*f0 Q=20
TEXT -200 888 Left 2 !.param fmin=1 fmax=1000k f0=10000
